Circuit: * C:\Users\pache\OneDrive\Documents\OpenSuperHet\LtSpice\State_Variable_Filter_NoAmpFeedback.asc

Early termination of direct N-R iteration.
Direct Newton iteration failed to find .op point.  (Use ".option noopiter" to skip.)
Starting Gmin stepping
Gmin = 10
vernier = 0.5
vernier = 0.25
vernier = 0.125
vernier = 0.0625
Gmin = 8.61953
vernier = 0.03125
vernier = 0.015625
vernier = 0.0078125
vernier = 0.00390625
Gmin = 8.47038
vernier = 0.00195312
vernier = 0.000976562
vernier = 0.000488281
Gmin = 0
Gmin stepping failed

Starting source stepping with srcstepmethod=0
Source Step = 3.0303%
Source Step = 33.3333%
Source Step = 63.6364%
Source Step = 93.9394%
Source stepping succeeded in finding the operating point.

.step fc=150
.step fc=600
.step fc=4000
.step fc=180000

Date: Tue Jul 23 11:01:33 2024
Total elapsed time: 2.618 seconds.

tnom = 27
temp = 27
method = trap
totiter = 1609
traniter = 0
tranpoints = 0
accept = 0
rejected = 0
matrix size = 122
fillins = 1746
solver = Normal
Avg thread counts: 5.6/0.0/20.0/4.0
Matrix Compiler1:   16360 opcodes
Matrix Compiler2: 39.98 KB object code size  7.3/4.6/[2.2]

